14
COMMENT
C  0.35121100  0.69565600 -1.19548400 
C  0.19222100  1.41749000  0.12159700 
C  0.04668600  0.72978900  1.27168900 
C -0.01388200 -0.74377300  1.26443200 
C -0.18924400 -1.41890200  0.11105600 
C -0.38218100 -0.68276000 -1.19351000 
H  1.41980400  0.53623000 -1.38386300 
H  0.27159400  2.49797300  0.13501200 
H -0.01790500  1.24760200  2.22044100 
H  0.07518100 -1.27189900  2.20548500 
H -0.26839900 -2.49947800  0.11473000 
H -1.45527000 -0.52143900 -1.35240700 
H -0.02329200  1.30543900 -2.01982300 
H -0.02923200 -1.28345800 -2.03387400 
